*SOLID SECTION, ELSET=DESIGN_PART, MATERIAL=MAT
*SOLID SECTION, ELSET=NONDESIGN, MATERIAL=MAT
*MATERIAL, NAME=MAT
*ELASTIC, TYPE = ISOTROPIC
210000.0  ,0.3       ,0.0       
*STEP
*STATIC
*BOUNDARY
      2663,1,2,0.0
      2604,2, ,0.0
*CLOAD
      1753,2,-50.0   
        57,2,50.0           
*OUTPUT, FIELD, VARIABLE = PRESELECT
*ELEMENT OUTPUT
S,SENER,ENER,EVOL,ELEN
*END STEP